/*--------------------------------*- C++ -*----------------------------------*\
| =========                 |                                                 |
| \\      /  F ield         | OpenFOAM: The Open Source CFD Toolbox           |
|  \\    /   O peration     | Version:  7.0                                   |
|   \\  /    A nd           | Web:      www.OpenFOAM.org                      |
|    \\/     M anipulation  |                                                 |
\*---------------------------------------------------------------------------*/
FoamFile
{
    version     2.0;
    format      ascii;
    class       dictionary;
    location    "constant/air";
    object      airProperties;
}
// * * * * * * * * * * * * * * * * * * * * * * * * * * * * * * * * * * * * * //
// Air (0.20*O2 + 0.65*N2 +0.15*H2O by mass) properties @ 353 K

rho             rho     [1 -3 0 0 0 0 0]    2.0313;
mu              mu      [1 -1 -1 0 0 0 0]   1.5158e-5;
Cp              Cp      [0 2 -2 -1 0 0 0]   1108.85;
k               k       [1 1 -3 -1 0 0 0]   0.02867;


diffusivity
{
    type        binaryFSG;
    Tname       T;
    pName       p;
    speciesA    O2;
    speciesB    H2O;
    speciesC    N2;
    // --------------------------------------
    //type        fixedDiffusivity;
    //diff0       diff0 [0 2 -1 0 0 0 0]  2.94e-5;
}

// ************************************************************************* //
