/*--------------------------------*- C++ -*----------------------------------*\
  =========                 |
  \\      /  F ield         | OpenFOAM: The Open Source CFD Toolbox
   \\    /   O peration     | Website:  https://openfoam.org
    \\  /    A nd           | Version:  10
     \\/     M anipulation  |
\*---------------------------------------------------------------------------*/
FoamFile
{
    format      ascii;
    class       dictionary;
    object      initialConditions;
}
// * * * * * * * * * * * * * * * * * * * * * * * * * * * * * * * * * * * * * //

diffO2airIn		1.0e-15;
pOutC      		2.0e5;
rhoInC			0.9140;
TInC       		341.15;
mfrInC			3.4023E-06;
H2OInC			0.0458;
O2InC			0.2222;
N2InC			#calc "1 - ($O2InC + $H2OInC)";




// ************************************************************************* //
