/*--------------------------------*- C++ -*----------------------------------*\
  =========                 |
  \\      /  F ield         | OpenFOAM: The Open Source CFD Toolbox
   \\    /   O peration     | Website:  https://openfoam.org
    \\  /    A nd           | Version:  10
     \\/     M anipulation  |
\*---------------------------------------------------------------------------*/
FoamFile
{
    format      ascii;
    class       dictionary;
    object      initialConditions;
}
// * * * * * * * * * * * * * * * * * * * * * * * * * * * * * * * * * * * * * //

diffH2fuelIn	1.0e-15;
pOutA      		2.2e5;
rhoInA			0.783;
TInA       		348.65;
mfrInA			7.2929E-07;
H2InA			0.1306;
H2OInA			0.0913;
N2InA			#calc "1 - ($H2InA + $H2OInA)";

// ************************************************************************* //
