/*--------------------------------*- C++ -*----------------------------------*\
| =========                 |                                                 |
| \\      /  F ield         | OpenFOAM: The Open Source CFD Toolbox           |
|  \\    /   O peration     | Version:  7.0                                   |
|   \\  /    A nd           | Web:      www.OpenFOAM.org                      |
|    \\/     M anipulation  |                                                 |
\*---------------------------------------------------------------------------*/
FoamFile
{
    version     2.0;
    format      ascii;
    class       volScalarField;
    location    "0/air";
    object      diffO2air;
}
// * * * * * * * * * * * * * * * * * * * * * * * * * * * * * * * * * * * * * //
#include "$FOAM_CASE/boundaryConditions/Air"

dimensions      [0 2 -1 0 0 0 0];

internalField   uniform 0;

boundaryField
{
    cat_in
    {
        type            fixedValue;
        value           uniform $diffO2airIn;
    }
    
    cat_out
    {
        type            zeroGradient;
    }
    
    ".*symmetry.*"
    {
        type            symmetry;
    }

    ".*wall.*"
    {
        type            zeroGradient;
    }
    
    ".*_to_.*"
    {
        type            zeroGradient;
    }

}

// ************************************************************************* //
